/*--------------------------------*- C++ -*----------------------------------*\
  =========                 |				
  \\      /  F ield         | OpenFOAM: The Open Source CFD Toolbox
   \\    /   O peration     | Website:  https://openfoam.org
    \\  /    A nd           | Version:  12                                   	
     \\/     M anipulation  |
\*---------------------------------------------------------------------------*/
FoamFile
{
    format      ascii;
    class       volScalarField;
    object      k;
}
// * * * * * * * * * * * * * * * * * * * * * * * * * * * * * * * * * * * * * //

dimensions      [0 2 -2 0 0 0 0];

internalField   uniform 0;

boundaryField
{
    #includeEtc "caseDicts/setConstraintTypes"

//You can also use the nonCouple group created with createBaffles
    "(NCC1|NCC2)"
    {
        type            zeroGradient;
        //value           $internalField;
    }

    "(propeller|body)"
    {
        type	        kqRWallFunction;
        value           $internalField;
    }


 
    inlet
    {
        //type            zeroGradient;

        type            fixedValue;
        value           $internalField;

        //type	        kqRWallFunction;
        //value           $internalField;
    }

    outlet
    {
        //type            zeroGradient;

        //type            fixedValue;
        //value           $internalField;

        //type	        kqRWallFunction;
        //value           $internalField;

        type            inletOutlet;
        inletValue      $internalField;
        value           $internalField;
    }

    "(wall1|wall2|wall3|wall4)"
    {
        //type            zeroGradient;

        type                symmetryPlane;

       // type            fixedValue;
        //value           $internalField;
        
        //type	        kqRWallFunction;
        //value           $internalField;
    }



}

// ************************************************************************* //
