/*--------------------------------*- C++ -*----------------------------------*\
  =========                 |				
  \\      /  F ield         | OpenFOAM: The Open Source CFD Toolbox
   \\    /   O peration     | Website:  https://openfoam.org
    \\  /    A nd           | Version:  12                                   	
     \\/     M anipulation  |
\*---------------------------------------------------------------------------*/
FoamFile
{
    format      ascii;
    class       volScalarField;
    object      nuSgs;
}
// * * * * * * * * * * * * * * * * * * * * * * * * * * * * * * * * * * * * * //

dimensions      [0 2 -1 0 0 0 0];

internalField   uniform 0;

boundaryField
{
    #includeEtc "caseDicts/setConstraintTypes"

//You can also use the nonCouple group created with createBaffles
    "(NCC1|NCC2)"
    {
        type            calculated;
        value           $internalField;

        //type            zeroGradient;
        //value           $internalField;
    }
    
    "(propeller|body)"
    {
        type            nutUSpaldingWallFunction;
        value           $internalField;
        //value           0;
    }


    inlet
    {
        //type            zeroGradient;

        type            calculated;
        value           $internalField;

        //type            nutUSpaldingWallFunction;
        //value           $internalField;
    }

    outlet
    {
        //type            zeroGradient;

        type            calculated;
        value           $internalField;
        
        //type            nutUSpaldingWallFunction;
        //value           $internalField;
    }

    "(wall1|wall2|wall3|wall4)"
    {
        //type            zeroGradient;
        //type                slip;
        //type            calculated;
        //value           $internalField;

        //type            nutUSpaldingWallFunction;
        //value           $internalField;
        type                symmetryPlane;
        value               uniform 0;
    }





}

// ************************************************************************* //
