/*--------------------------------*- C++ -*----------------------------------*\
  =========                 |				
  \\      /  F ield         | OpenFOAM: The Open Source CFD Toolbox
   \\    /   O peration     | Website:  https://openfoam.org
    \\  /    A nd           | Version:  12                                   	
     \\/     M anipulation  |
\*---------------------------------------------------------------------------*/
FoamFile
{
    format      ascii;
    class       volVectorField;
    object      U;
}
// * * * * * * * * * * * * * * * * * * * * * * * * * * * * * * * * * * * * * //

dimensions      [0 1 -1 0 0 0 0];

internalField   uniform (-5 0 0);

boundaryField
{
    #includeEtc "caseDicts/setConstraintTypes"

//You can also use the nonCouple group created with createBaffles
    "(NCC1|NCC2)"
    {
        type            movingWallSlipVelocity;
        value           $internalField;
    }
    /*
    propeller
    {
        type            movingWallVelocity;
        value           uniform (0 0 0);
    }
	*/

    propeller
    {
        type            movingWallVelocity;
        value           $internalField;
    }
    
    body
    {
        ///type            fixedValue;
        //value           uniform (0 0 0);
        type                noSlip;
    }
   
    
    inlet
    {
        type            fixedValue;
        value           uniform (-5 0 0);
    }

    outlet
    {
        type            inletOutlet;
        inletValue      $internalField;
        value           $internalField;
    }

    "(wall1|wall2|wall3|wall4)"
    {
        //type            fixedValue;
        //value           uniform (0 0 0);
        type            symmetryPlane;
    }


}

// ************************************************************************* //
