/*--------------------------------*- C++ -*----------------------------------*\
  =========                 |
  \\      /  F ield         | OpenFOAM: The Open Source CFD Toolbox
   \\    /   O peration     | Website:  https://openfoam.org
    \\  /    A nd           | Version:  dev
     \\/     M anipulation  |
\*---------------------------------------------------------------------------*/
FoamFile
{
    format      ascii;
    class       dictionary;
    location    "system";
    object      blockMeshDict;
}
// * * * * * * * * * * * * * * * * * * * * * * * * * * * * * * * * * * * * * //

backgroundMesh
{
    xMin            -1.0;
    xMax            -0.55;
    yMin            -1.11;
    yMax            -0.7;
    zMin            0.25;
    zMax            0.65;
    xCells          11;
    yCells          10;
    zCells          10; //21
}

convertToMeters 1;
/*
defaultPatch
{
    name background;
    type internal;
}
*/
// delete "-disabled" to enable boundary settings
boundary
(
    outlet { type patch; faces ( (0 3 7 4) ); }
    inlet { type patch; faces ( (1 5 6 2) ); }
    wall1 { type symmetryPlane; faces ( (0 4 5 1) ); }
    wall2 { type symmetryPlane; faces ( (3 2 6 7) ); }
    wall3 { type symmetryPlane; faces ( (0 1 2 3) ); }
    wall4 { type symmetryPlane; faces ( (4 7 6 5) ); }

    /*
    xMin { type patch; faces ( (0 3 7 4) ); }
    xMax { type patch; faces ( (1 5 6 2) ); }
    yMin { type patch; faces ( (0 4 5 1) ); }
    yMax { type patch; faces ( (3 2 6 7) ); }
    zMin { type patch; faces ( (0 1 2 3) ); }
    zMax { type patch; faces ( (4 7 6 5) ); }
    */


);

vertices
(
    ($!backgroundMesh/xMin $!backgroundMesh/yMin $!backgroundMesh/zMin)
    ($!backgroundMesh/xMax $!backgroundMesh/yMin $!backgroundMesh/zMin)
    ($!backgroundMesh/xMax $!backgroundMesh/yMax $!backgroundMesh/zMin)
    ($!backgroundMesh/xMin $!backgroundMesh/yMax $!backgroundMesh/zMin)
    ($!backgroundMesh/xMin $!backgroundMesh/yMin $!backgroundMesh/zMax)
    ($!backgroundMesh/xMax $!backgroundMesh/yMin $!backgroundMesh/zMax)
    ($!backgroundMesh/xMax $!backgroundMesh/yMax $!backgroundMesh/zMax)
    ($!backgroundMesh/xMin $!backgroundMesh/yMax $!backgroundMesh/zMax)
);

blocks
(
    hex (0 1 2 3 4 5 6 7)
    (
        $!backgroundMesh/xCells
        $!backgroundMesh/yCells
        $!backgroundMesh/zCells
    )
    simpleGrading (1 1 1)
);

edges
(
);

mergePatchPairs
(
);


// ************************************************************************* //
