/*--------------------------------*- C++ -*----------------------------------*\
  =========                 |				
  \\      /  F ield         | OpenFOAM: The Open Source CFD Toolbox
   \\    /   O peration     | Website:  https://openfoam.org
    \\  /    A nd           | Version:  12                                   	
     \\/     M anipulation  |
\*---------------------------------------------------------------------------*/
FoamFile
{
    format      ascii;
    class       dictionary;
    object      snappyHexMeshDict;
}
// * * * * * * * * * * * * * * * * * * * * * * * * * * * * * * * * * * * * * //



//**************************************************************************************************************************

castellatedMesh true;
snap            true;
addLayers       false;

//**************************************************************************************************************************



//**************************************************************************************************************************

geometry
{
    body
    {
        type triSurfaceMesh;
        file "body.stl";
    }
   
    propeller
    {
        type triSurfaceMesh;
        file "propeller.stl";
    }

    box
    {
        type triSurfaceMesh;
        file "box.stl";
    } 

    inner_volume_big
    {
        type triSurfaceMesh;
        file "inner_volume_big.stl";
    } 
    
    inner_volume
    {
        type triSurfaceMesh;
        file "inner_volume.stl";
    }
    
    
    

};

//**************************************************************************************************************************



//**************************************************************************************************************************

// Settings for the castellatedMesh generation.
castellatedMeshControls
{

    // Refinement parameters

    maxLocalCells       100000;
    maxGlobalCells      2000000;
    minRefinementCells  1; //0-10
    maxLoadUnbalance    0.10;
    nCellsBetweenLevels 3;

    planarAngle         30;
    allowFreeStandingZoneFaces true;

    // Feature angle
    resolveFeatureAngle 30;         //recommended
    //resolveFeatureAngle 60;       //To avoid too much refinement with curvature   


    // Explicit feature edge refinement

    features
    (
        {
             file "body.eMesh";
             //level 4;
             level 4;
             //levels ((0 0));
         }

        {
             file "propeller.eMesh";
             level 4;
             //level 1;
             //levels ((4 4));
         }


         

         {
             file "inner_volume.eMesh";
             level 4;
             //level 2;
             //levels ((0.1 1));	//2 4 6
         }

            


    );
    
    

    // Surface based refinement

    refinementSurfaces
    {
        
	    body
        {
	        level (4 4);
            //level (4 4);

            patchInfo
            {
                type wall;
            }
	    } 
        
	    propeller
        {
	        level (4 4);

            patchInfo
            {
                type wall;
            }
	    }
        
 
        inner_volume
        {
	    level (4 4);
            //level (1 1);
	    //level (1 2);
	    //level (2 2);

            cellZone cell_inner_volume;
            faceZone face_inner_volume;

	    faceType internal;

	    //cellZoneInside inside;
            cellZoneInside insidePoint;
            //insidePoint (990.25 190.25 -1210.00);
            //insidePoint (-0.7048 -0.8048 0.395);
            insidePoint (-0.7048 -0.8348 0.495);
        }
        
        /*
	    cylinder
        {
			level (0 0);

            faceZone face_inner;
            cellZone cell_inner;

            cellZoneInside inside;

            //cellZoneInside inside;  //outside/insidePoint
            //- Optional specification of what to do with faceZone faces:
            //      internal : keep them as internal faces (default)
            //      baffle   : create baffles from them. This gives more
            //                 freedom in mesh motion
            //      boundary : create free-standing boundary faces (baffles
            //                 but without the shared points)
            //faceType baffle;
	 }
        */

    }



    // Region-wise refinement

    refinementRegions
    {

        
        
        inner_volume
        {
           mode inside;
          //levels  (( 1 1 ));
          //levels  (( 2 2 ));
          //levels  (( 4 4 ));
          level 4;
        }

        inner_volume_big
        {
           mode inside;
          //levels  (( 1 1 ));
          //levels  (( 2 2 ));
          //levels  (( 4 4 ));
          level 4;
        }
        
        box
        {
			mode inside;
            //levels  ((4 4));
            //levels  (( 3 3 ));
            //levels  ((2 2));
            level 3;
		} 


        /*
        body
        {
           mode outside;
          //levels  (( 1 1 ));
          levels  (( 2 2 ));
          //levels  (( 4 4 ));
        }
        */
        /*
		cylinder
        {
			mode inside;
            //levels (( 0 0 ));
            levels (( 1 1 ));
            //levels (( 2 2 ));
            //levels (( 2 4 ));
		}
        */
    }

    // Mesh selection
    // ~~~~~~~~~~~~~~

    locationInMesh (-0.904875 -0.895125 0.495);
    //locationInMesh (-0.2048 -0.8048 0.495);

}

//**************************************************************************************************************************



//**************************************************************************************************************************

// Settings for the snapping.
snapControls
{

    nSmoothPatch 3;		//recommended
    //nSmoothPatch 10;		//improved

    tolerance 2.0;
    //tolerance 1.0;

    nSolveIter 50;		//recommended
    //nSolveIter 100;		//improved

    nRelaxIter 5;		//recommended
    //nRelaxIter 10;		//improved	10-20-50

    // Feature snapping
    nFeatureSnapIter 20;	//recommended
    //nFeatureSnapIter 100;	//improved	20-50-100

    implicitFeatureSnap false;

    explicitFeatureSnap true;

    multiRegionFeatureSnap false;
    
}

//**************************************************************************************************************************



//**************************************************************************************************************************

// Settings for the layer addition.
addLayersControls
{

    layers
    {
	    body
        {
            nSurfaceLayers 3;
            expansionRatio      1.2;
            finalLayerThickness 0.2;
            minThickness        0.002;
        }

        propeller
        {
            nSurfaceLayers 3;
            expansionRatio      1.2;
            finalLayerThickness 0.2;
            minThickness        0.002;
        }

        

       

        // Disable any mesh shrinking and layer addition on any point of
        // a patch by setting nSurfaceLayers to 0
/*
        frozenPatches
        {
            nSurfaceLayers 0;
        }
*/
    }
    

   relativeSizes true;

    // Layer thickness specification. This can be specified in one of following
    // ways:
    //first layer thickness ('firstLayerThickness') and overall thickness ('thickness') or
    //first layer thickness ('firstLayerThickness') and expansion ratio ('expansionRatio') or
    //final layer thickness ('finalLayerThickness') and expansion ratio ('expansionRatio') or
    //final layer thickness ('finalLayerThickness) and overall thickness ('thickness') or
    //overall thickness ('thickness') and expansion ratio ('expansionRatio'

    //expansionRatio 1.0;
    expansionRatio 1.2;
    //finalLayerThickness 0.5;
    firstLayerThickness 0.1;
    //thickness 0.5
    minThickness 0.1;


    //BL Advanced settings - Quality parameters - A game of numbers

    nGrow 0;

    //featureAngle              0;		    //no inflation
    featureAngle                130;		//recommended
    //featureAngle              330;		//improved

    slipFeatureAngle            30;     //15

    nSmoothSurfaceNormals       1;
    nSmoothNormals              3;
    nSmoothThickness            10;
    maxFaceThicknessRatio       0.5;
    maxThicknessToMedialRatio   0.6;    //0.3

    minMedialAxisAngle          90;
    nMedialAxisIter             10;

    nBufferCellsNoExtrude       0;

    additionalReporting       false;
    //nSmoothDisplacement       0;
    //detectExtrusionIsland     false;

    nLayerIter                  50;
    nRelaxedIter                20;
    nRelaxIter                  5;

}

//**************************************************************************************************************************



//**************************************************************************************************************************

// Generic mesh quality settings. At any undoable phase these determine
// where to undo.
meshQualityControls
{

    #include "meshQualityDict"

    // Advanced - Can be commented

    // Number of error distribution iterations
    nSmoothScale 4;
    
    // amount to scale back displacement at error points
    errorReduction 0.75;

    relaxed
    {
        // Maximum non-orthogonality allowed. Set to 180 to disable.
        maxNonOrtho 75;
    }
    
}

//**************************************************************************************************************************



//**************************************************************************************************************************

// Extra options - Optional

/*
debugFlags
(
    mesh            // write intermediate meshes
    intersections   // write current mesh intersections as .obj files
    featureSeeds    // write information about explicit feature edge
                    // refinement
    attraction      // write attraction as .obj files
    layerInfo       // write information about layers
);
*/

/*
writeFlags
(
    scalarLevels    // write volScalarField with cellLevel for postprocessing
    layerSets       // write cellSets, faceSets of faces in layer
    layerFields     // write volScalarField for layer coverage
);
*/

//**************************************************************************************************************************



mergeTolerance 1e-1;



// ************************************************************************* //

