/*--------------------------------*- C++ -*----------------------------------*\
  =========                 |				
  \\      /  F ield         | OpenFOAM: The Open Source CFD Toolbox
   \\    /   O peration     | Website:  https://openfoam.org
    \\  /    A nd           | Version:  12                                  	
     \\/     M anipulation  |
\*---------------------------------------------------------------------------*/
FoamFile
{
    format      ascii;
    class       dictionary;
    object      dynamicMeshDict;
}
// * * * * * * * * * * * * * * * * * * * * * * * * * * * * * * * * * * * * * //

mover
{
    type            motionSolver;

    //libs            ("libfvMeshMovers.so" "libfvMotionSolvers.so");
    libs            ("libfvMotionSolvers.so");

    motionSolver    solidBody;

    cellZone        cell_inner_volume;

    solidBodyMotionFunction  rotatingMotion;


    //origin      (-0.62 -0.901 0.453);
    origin      (-0.64878 -0.90145 0.45302);
    axis        (1 0 0);

    omega     constant 12.566370;       //720 deg/s

    //omega     constant 18.849555;     //1080 deg/s
    //omega     constant 6.283185;      //360 deg/s

    //To use RPM instead, use the keyword rpm
    //Recall, omega=RPM∗2∗PI/60
    //RPM = deg/s / 6


    //To use a table to scale and in rpm
    /*
        rpm         table
        (
            (0    0)
            (0.01  6000)
            (0.022  6000)
            (0.03  4000)
            (100   4000)
        );
    */

}

// ************************************************************************* //
